@<TRIPOS>MOLECULE
3032474
72 77 1 0 0
SMALL
GASTEIGER


@<TRIPOS>ATOM
      1 O2         39.7294   27.3770    9.2882 O.3       1 LIG1   -0.3802
      2 O1         36.5519   24.3790    6.3660 O.3       1 LIG1   -0.3914
      3 O3         42.2139   25.5234    8.3676 O.2       1 LIG1   -0.2919
      4 O4         41.3150   24.2046   10.6154 O.3       1 LIG1   -0.3874
      5 N1         31.0028   28.2795    4.9764 N.ar      1 LIG1   -0.2324
      6 N2         30.1727   27.3389    5.4766 N.ar      1 LIG1   -0.1740
      7 C13        38.9580   26.1562    7.2706 C.3       1 LIG1    0.0097
      8 C14        38.5553   27.4691    6.5543 C.3       1 LIG1   -0.0255
      9 C8         37.3888   27.2798    5.5690 C.3       1 LIG1   -0.0129
     10 C9         36.1490   26.8002    6.3830 C.3       1 LIG1    0.0013
     11 C17        40.1519   26.6890    8.1170 C.3       1 LIG1    0.1340
     12 C12        37.7329   25.6553    8.0666 C.3       1 LIG1   -0.0178
     13 C15        39.8879   28.0196    6.0427 C.3       1 LIG1   -0.0434
     14 C16        40.9241   27.6077    7.1229 C.3       1 LIG1   -0.0071
     15 C11        36.4535   25.5166    7.2100 C.3       1 LIG1    0.0600
     16 C10        34.8478   26.7965    5.4998 C.3       1 LIG1    0.0030
     17 C18        39.4527   25.0489    6.2972 C.3       1 LIG1   -0.0562
     18 C7         37.0768   28.5390    4.8022 C.2       1 LIG1   -0.0771
     19 C5         34.6313   28.2633    4.9426 C.2       1 LIG1   -0.0361
     20 C1         33.6395   26.2785    6.3847 C.3       1 LIG1   -0.0144
     21 C20        41.0296   25.6164    8.6867 C.2       1 LIG1    0.1904
     22 C30        41.5994   28.8191    7.7593 C.3       1 LIG1   -0.0594
     23 C6         35.8408   29.0001    4.5345 C.2       1 LIG1   -0.0503
     24 C19        34.9485   25.8671    4.2617 C.3       1 LIG1   -0.0549
     25 C2         32.3505   26.8366    5.9231 C.ar      1 LIG1   -0.0014
     26 C4         33.3921   28.7962    4.8006 C.2       1 LIG1   -0.0320
     27 C21        40.3761   24.6657    9.6672 C.3       1 LIG1    0.1052
     28 C3         32.3108   28.0070    5.2174 C.ar      1 LIG1    0.0710
     29 C28        35.6939   30.2843    3.7563 C.3       1 LIG1   -0.0397
     30 C22        31.0044   26.4626    6.0572 C.ar      1 LIG1    0.0536
     31 C24        30.4670   29.3682    4.2865 C.ar      1 LIG1    0.0660
     32 C23        31.1992   29.9586    3.2651 C.ar      1 LIG1   -0.0362
     33 C27        29.2081   29.8433    4.6286 C.ar      1 LIG1   -0.0362
     34 C25        30.6627   31.0445    2.5734 C.ar      1 LIG1   -0.0598
     35 C29        28.6715   30.9293    3.9367 C.ar      1 LIG1   -0.0598
     36 C26        29.3990   31.5298    2.9091 C.ar      1 LIG1   -0.0616
     37 H          38.2094   28.1894    7.3148 H         1 LIG1    0.0313
     38 H          37.6669   26.5291    4.8224 H         1 LIG1    0.0350
     39 H          35.9702   27.5734    7.1510 H         1 LIG1    0.0340
     40 H          37.5078   26.3530    8.8824 H         1 LIG1    0.0297
     41 H          37.9477   24.6853    8.5255 H         1 LIG1    0.0297
     42 H          40.1518   27.5727    5.0768 H         1 LIG1    0.0272
     43 H          39.8466   29.1048    5.9009 H         1 LIG1    0.0272
     44 H          41.7072   27.0461    6.5972 H         1 LIG1    0.0330
     45 H          35.6228   25.3211    7.8967 H         1 LIG1    0.0596
     46 H          38.7499   24.8435    5.4879 H         1 LIG1    0.0236
     47 H          40.4018   25.3019    5.8149 H         1 LIG1    0.0236
     48 H          39.6081   24.1025    6.8255 H         1 LIG1    0.0236
     49 H          37.9312   29.0944    4.4221 H         1 LIG1    0.0578
     50 H          33.7733   26.6085    7.4235 H         1 LIG1    0.0323
     51 H          33.6024   25.1829    6.3959 H         1 LIG1    0.0323
     52 H          40.8701   29.4933    8.2204 H         1 LIG1    0.0233
     53 H          42.3191   28.5098    8.5238 H         1 LIG1    0.0233
     54 H          42.1446   29.3927    7.0019 H         1 LIG1    0.0233
     55 H          35.8002   26.1095    3.6189 H         1 LIG1    0.0238
     56 H          35.0353   24.8146    4.5438 H         1 LIG1    0.0238
     57 H          34.0516   25.9463    3.6352 H         1 LIG1    0.0238
     58 H          40.5093   27.7294    9.7488 H         1 LIG1    0.2108
     59 H          36.7081   23.6031    6.9308 H         1 LIG1    0.2098
     60 H          33.2797   29.8311    4.5127 H         1 LIG1    0.0642
     61 H          39.9913   23.8004    9.1233 H         1 LIG1    0.0637
     62 H          39.5607   25.1385   10.2180 H         1 LIG1    0.0637
     63 H          35.0880   30.1288    2.8570 H         1 LIG1    0.0278
     64 H          36.6605   30.6786    3.4224 H         1 LIG1    0.0278
     65 H          35.2286   31.0613    4.3722 H         1 LIG1    0.0278
     66 H          30.5869   25.5990    6.5544 H         1 LIG1    0.0851
     67 H          41.5933   24.9695   11.1477 H         1 LIG1    0.2100
     68 H          32.1192   29.5510    2.8621 H         1 LIG1    0.0639
     69 H          28.6218   29.4038    5.4313 H         1 LIG1    0.0639
     70 H          31.2149   31.4934    1.7527 H         1 LIG1    0.0618
     71 H          27.6879   31.3082    4.1985 H         1 LIG1    0.0618
     72 H          28.9784   32.3711    2.3659 H         1 LIG1    0.0618
@<TRIPOS>BOND
     1    1   11 1
     2    1   58 1
     3    2   15 1
     4    2   59 1
     5    3   21 2
     6    4   27 1
     7    4   67 1
     8    5    6 ar
     9    5   28 ar
    10    5   31 1
    11    6   30 ar
    12    7    8 1
    13    7   11 1
    14    7   12 1
    15    7   17 1
    16    8    9 1
    17    8   13 1
    18    8   37 1
    19    9   10 1
    20    9   18 1
    21    9   38 1
    22   10   15 1
    23   10   16 1
    24   10   39 1
    25   11   14 1
    26   11   21 1
    27   12   15 1
    28   12   40 1
    29   12   41 1
    30   13   14 1
    31   13   42 1
    32   13   43 1
    33   14   22 1
    34   14   44 1
    35   15   45 1
    36   16   19 1
    37   16   20 1
    38   16   24 1
    39   17   46 1
    40   17   47 1
    41   17   48 1
    42   18   23 2
    43   18   49 1
    44   19   23 1
    45   19   26 2
    46   20   25 1
    47   20   50 1
    48   20   51 1
    49   21   27 1
    50   22   52 1
    51   22   53 1
    52   22   54 1
    53   23   29 1
    54   24   55 1
    55   24   56 1
    56   24   57 1
    57   25   28 ar
    58   25   30 ar
    59   26   28 1
    60   26   60 1
    61   27   61 1
    62   27   62 1
    63   29   63 1
    64   29   64 1
    65   29   65 1
    66   30   66 1
    67   31   32 ar
    68   31   33 ar
    69   32   34 ar
    70   32   68 1
    71   33   35 ar
    72   33   69 1
    73   34   36 ar
    74   34   70 1
    75   35   36 ar
    76   35   71 1
    77   36   72 1
@<TRIPOS>SUBSTRUCTURE
     1 LIG1     1 RESIDUE           4 A     LIG1     0 ROOT
